12

C -0.330404 1.924607 0.110208
O 0.518255 0.784917 -0.056942
H -0.266656 2.499608 -0.809064
H 0.006108 2.544882 0.941794
H -1.366685 1.625850 0.276532
H 0.451465 0.229954 0.739510
O -0.317993 -1.502573 -1.393094
H 0.020730 -0.607618 -1.187400
H 0.240084 -1.849814 -2.096931
O -0.171046 -1.499949 1.390689
H -0.316205 -2.189111 2.045982
H -0.319944 -1.889385 0.510332
RMSD: 0.1496072615198439