15

C 2.456869 0.833005 -0.230724
O 1.411517 0.206058 0.515955
H 3.385741 0.350525 0.060395
H 2.522008 1.896739 0.002442
H 2.308790 0.707284 -1.304760
H 0.554799 0.595014 0.251281
C -2.440077 0.809971 0.114482
O -1.181800 0.423095 -0.440885
H -2.456923 1.895979 0.127812
H -2.557464 0.438732 1.134344
H -3.267370 0.450256 -0.498911
H -1.118243 -0.549339 -0.448749
O 0.029705 -2.095392 -0.147422
H 0.739203 -1.505504 0.177729
H 0.013012 -2.860183 0.437473
RMSD: 0.07498650371340608