9

N -0.018318 1.024384 -1.340800
H -0.021579 0.029299 -1.139948
H -0.856363 1.341430 -1.818032
H 0.832790 1.340553 -1.794940
C -0.054867 2.114866 1.374297
O -0.061607 0.998738 1.829565
O -0.049423 3.264231 1.014977
O -0.043498 -1.921327 0.388843
C -0.058810 -2.326329 1.493165
RMSD: 0.06401162500316426