11

C 1.565723 -1.180297 -0.100000
O 0.434069 -1.634830 0.584995
H 0.605990 -1.686183 1.554140
H 1.837378 -0.176246 0.234988
H 2.406972 -1.860295 0.052697
H 1.336107 -1.141818 -1.166355
O 1.070457 1.984107 0.021379
H 1.022261 2.950868 0.090582
H 0.147255 1.676904 -0.071733
O -1.783911 1.070641 -0.281559
C -2.030187 -0.030245 -0.312902
RMSD: 0.9119102900037832