12

C 0.186947 -1.754217 -0.056566
O -0.910369 -0.855880 -0.168307
H 0.257113 -2.301984 -0.997082
H 0.033129 -2.475041 0.753757
H 1.128732 -1.222521 0.116940
H -0.905970 -0.333362 0.646246
O -0.140345 1.601506 -1.254404
H -0.445705 0.685670 -1.138042
H -0.869661 2.022732 -1.711523
O -0.176002 1.202216 1.478180
H 0.024672 1.837476 2.163857
H -0.034833 1.664773 0.638561
RMSD: 0.23255798671813913