10

N -0.215582 -1.467841 -0.499892
H -1.034820 -2.024955 -0.703016
H -0.257763 -0.638330 -1.085369
H 0.587197 -2.006019 -0.797538
O -0.285433 0.346116 1.642383
H 0.379025 0.237529 2.326195
H -0.215768 -0.455265 1.078646
O -0.124626 1.545076 -0.878729
H -0.593090 2.370922 -1.015503
H -0.165470 1.388248 0.080701
RMSD: 0.01558449320184154