12

C 1.742913 -0.007561 0.312744
O 0.635536 0.117748 -0.581705
H 2.341750 0.888987 0.205448
H 2.356104 -0.870020 0.061178
H 1.413339 -0.091671 1.346513
H 0.061859 -0.653798 -0.460807
O -1.716935 1.371854 0.185429
H -0.811048 1.207721 -0.131156
H -2.071743 2.051100 -0.388835
O -1.595383 -1.432477 0.120725
H -2.221547 -1.963849 -0.371959
H -1.987139 -0.546668 0.174041
RMSD: 0.021906148005049794