14

N 1.035307 1.522058 0.004932
H 0.067827 1.224651 0.003808
H 1.162725 2.109020 0.808287
H 1.169975 2.095664 -0.806430
N 2.233409 -1.323750 0.004218
H 2.803728 -1.408738 -0.816583
H 1.840293 -0.386848 0.005396
H 2.836849 -1.396667 0.801939
C -1.712764 -0.858556 -0.001928
O -1.835010 0.536516 -0.001626
H -0.651843 -1.116466 -0.003441
H -2.175604 -1.284546 -0.895125
H -2.174117 -1.284637 0.892034
H -2.782677 0.804857 0.001712
RMSD: 0.2220208554984876