12

N -0.020587 2.174985 0.267159
H -0.647984 2.974818 0.353016
H 0.832999 2.527297 -0.166781
H -0.447223 1.539607 -0.411352
C -1.508407 -0.918966 0.533518
O -1.296453 -0.417076 -0.800462
H -1.030698 -0.197261 1.207235
H -1.040273 -1.907172 0.670849
H -2.582149 -0.983260 0.773092
H -1.733106 -1.015115 -1.420499
O 1.770447 -1.093257 0.381364
C 2.000135 -0.227338 -0.340171
RMSD: 0.0342575997480338