15

C -2.115449 0.957328 -0.162295
O -1.403118 0.117284 0.744993
H -3.118780 0.551305 -0.257297
H -2.184939 1.977636 0.216864
H -0.487285 0.443304 0.806915
H -1.646842 0.971976 -1.148340
C 2.248451 0.790632 -0.313322
O 1.368912 0.200607 0.642581
H 2.346832 1.841253 -0.053852
H 1.851817 0.711151 -1.327085
H 3.235610 0.328111 -0.279675
H 1.213641 -0.725088 0.390388
O -0.004190 -2.102796 -0.073748
H -0.737846 -1.521781 0.205609
H -0.167045 -2.944683 0.358727
RMSD: 0.7783867036794551