9

C -1.803210 -0.779195 0.015447
O -0.651226 -0.867541 0.099229
O -2.957298 -0.714771 -0.068772
C 2.106757 -0.135295 -0.015052
O 1.696682 0.947297 0.015035
O 2.552161 -1.203556 -0.066598
O -1.059548 1.990810 -0.018732
H -0.137261 1.661270 -0.004928
H -0.995293 2.956185 0.045644
RMSD: 0.1614492445262241