12

C 1.682341 0.035518 0.324332
O 0.636063 0.123031 -0.634687
H 2.294958 0.925855 0.219162
H 2.310446 -0.838209 0.150022
H 1.295531 -0.005833 1.343184
H 0.051731 -0.642881 -0.494750
O -1.702660 1.322613 0.179812
H -0.802136 1.172773 -0.165988
H -2.115646 1.912409 -0.453639
O -1.497913 -1.439551 0.155489
H -2.115457 -1.943142 -0.378166
H -1.889549 -0.551217 0.226844
RMSD: 0.06440493566931307