14

N -0.131961 -1.114922 1.453765
H -0.026323 -0.125343 1.269263
H -1.008076 -1.235016 1.927199
H 0.591588 -1.375308 2.097304
N 0.132659 -2.008104 -1.490090
H 0.915478 -2.632945 -1.544610
H 0.044514 -1.715285 -0.521165
H -0.690638 -2.532218 -1.720962
C 0.359695 1.854484 -0.585884
O 0.197267 1.831367 0.804891
H 0.318048 0.829512 -0.959745
H 1.328670 2.282895 -0.852417
H -0.440678 2.430280 -1.056441
H 0.227857 2.743161 1.176086
RMSD: 0.22202070178291317