9

N -0.425396 1.965557 0.001339
H 0.585221 1.891680 0.000245
H -0.675455 2.522171 -0.807783
H -0.673813 2.520254 0.812283
C -1.532010 -0.758303 -0.000257
O -0.447510 -1.197436 0.000633
O -2.633382 -0.366783 -0.001179
O 2.543447 0.180171 0.000501
C 2.927224 -0.891466 0.001345
RMSD: 0.044820362260830436