11

N -1.557670 0.295699 -1.884939
H -1.825526 1.112918 -2.439261
H -1.824171 -0.514228 -2.450503
H -2.186270 0.289541 -1.076716
N 0.664626 0.278661 0.460559
H 1.288539 -0.532500 0.449257
H 0.195377 0.285909 -0.453811
H 1.288740 1.089744 0.462083
C -1.636783 0.263863 2.297805
O -0.969777 0.258858 3.266653
O -2.360272 0.268568 1.365427
RMSD: 0.0563529816455443