15

C -2.206687 1.005364 -0.254071
O -1.479357 0.047855 0.503900
H -3.183653 0.573078 -0.473051
H -2.354169 1.932536 0.310067
H -0.592852 0.408239 0.671465
H -1.705442 1.238637 -1.200620
C 2.360671 0.782327 -0.048715
O 1.295378 0.191058 0.683753
H 2.431844 1.824096 0.266099
H 2.176969 0.750018 -1.128629
H 3.314474 0.288086 0.164666
H 1.199052 -0.728405 0.390857
O 0.045330 -2.137125 -0.229558
H -0.731081 -1.581444 -0.040117
H -0.170709 -2.998077 0.134418
RMSD: 0.7682625816373343