9

C -1.698449 -0.768541 -0.054353
O -0.554459 -1.032046 0.074791
O -2.849257 -0.565609 -0.198310
C 2.183043 -0.032830 -0.037781
O 1.807666 1.062766 -0.274725
O 2.582552 -1.114626 0.193326
O -1.091450 1.874470 0.359285
H -0.149971 1.892626 0.157246
H -1.477912 2.538993 -0.218208
RMSD: 0.22432046266674258