14

N -0.832755 1.750188 0.008247
H 0.157880 1.490242 0.006871
H -0.977388 2.350335 -0.803570
H -0.977030 2.343134 0.825402
N -1.677859 -1.347756 -0.006146
H -2.239560 -1.602268 0.806628
H -1.600965 -0.323876 -0.001352
H -2.239566 -1.594650 -0.821261
C 1.861753 -0.973088 -0.004394
O 1.981457 0.467208 0.001932
H 0.788088 -1.199829 -0.005353
H 2.326722 -1.412945 0.893056
H 2.326663 -1.405039 -0.905705
H 2.920659 0.690900 0.002838
RMSD: 0.019065006769757087