11

N 1.052569 1.052101 0.000294
H 1.580326 1.342702 0.810740
H 1.580148 1.342560 -0.810318
H 0.190826 1.581282 0.000345
N -1.229130 -1.196606 0.000425
H -1.258043 -1.802239 -0.807484
H -0.325742 -0.733878 0.000170
H -1.258363 -1.800634 0.809525
C -3.073404 1.085760 -0.002360
O -4.025812 0.410816 -0.002863
O -2.156562 1.815170 -0.001921
RMSD: 0.017236340552468365