9

C 1.477740 -0.824550 -0.033408
O 0.324818 -1.029106 -0.010597
O 2.632853 -0.659474 -0.059453
C -2.482448 -0.061777 -0.019135
O -2.120187 1.043116 -0.165820
O -2.861351 -1.155210 0.125309
O 0.803884 1.876236 0.172690
H -0.142602 1.906469 0.014191
H 1.119055 2.759501 -0.022504
RMSD: 0.09875991176214607