12

N -1.385515 2.193336 0.536878
H -1.654646 2.135177 1.502319
H -2.125089 2.661044 0.044722
H -1.337697 1.247079 0.180294
C -0.306159 -1.419585 0.203599
O -1.238457 -0.672457 -0.524783
H -0.224466 -0.991091 1.203924
H 0.674508 -1.377533 -0.275878
H -0.630408 -2.458630 0.295061
H -1.352821 -1.040641 -1.430980
O 2.234608 0.609865 -0.346748
C 1.642842 1.570701 -0.341441
RMSD: 0.5216872851541018