11

N 1.062825 -0.448382 -0.001045
H 1.600521 -0.743165 -0.816162
H 1.600746 -0.741516 0.814519
H 0.207610 -1.006600 -0.000381
N -1.268599 1.740458 -0.001008
H -1.298661 2.356254 0.811994
H -0.345620 1.294812 -0.001575
H -1.300063 2.355445 -0.814568
C -3.048315 -0.550738 0.001575
O -4.020276 0.114415 0.002238
O -2.113355 -1.273949 0.000968
RMSD: 0.011808285741025782