12

C -0.434620 1.964264 0.101124
O 0.329167 0.784679 -0.143930
H -0.403950 2.569739 -0.816359
H -0.006001 2.558210 0.927935
H -1.488210 1.728749 0.336190
H 0.286568 0.229253 0.658496
O -0.289548 -1.651574 -1.345314
H -0.071483 -0.702922 -1.230919
H 0.248720 -1.929909 -2.097604
O -0.140311 -1.467840 1.467275
H 0.327614 -2.107757 2.019283
H -0.210239 -1.903526 0.595438
RMSD: 0.12636330987628827