15

C -2.397014 0.925758 0.253588
O -1.427001 0.196111 -0.495103
H -3.374860 0.458249 0.066692
H -2.446291 1.981265 -0.068924
H -2.188552 0.890928 1.338171
H -0.548730 0.584731 -0.305869
C 2.542764 0.733539 -0.140585
O 1.228284 0.387515 0.288548
H 2.608782 1.831181 -0.138970
H 2.751229 0.368928 -1.162943
H 3.310357 0.335320 0.546679
H 1.148330 -0.586154 0.276949
O -0.006527 -2.132796 0.061628
H -0.739325 -1.529617 -0.184541
H -0.061679 -2.848721 -0.584857
RMSD: 0.1597945325318696