15

C 0.879091 0.328524 -2.402733
O 0.146834 -0.414300 -1.435264
H 0.438675 0.115298 -3.377383
H 1.932116 0.028294 -2.422062
H 0.817831 1.406080 -2.214333
H 0.511686 -0.205532 -0.559135
C 0.608240 -0.042438 2.488136
O 0.301620 0.444904 1.188145
H 1.694627 -0.092484 2.566930
H 0.196674 -1.044568 2.652584
H 0.232278 0.631371 3.265252
H -0.662431 0.478272 1.091741
O -2.177623 0.283356 -0.112201
H -1.573042 -0.033891 -0.806625
H -2.946807 -0.286646 -0.172589
RMSD: 0.11432436276320018