15

C -2.349560 0.879806 0.237853
O -1.354943 0.245178 -0.556607
H -3.306313 0.443020 -0.031673
H -2.389458 1.951361 0.042145
H -2.177084 0.719079 1.302596
H -0.483986 0.591427 -0.288552
C 2.480904 0.733049 -0.170211
O 1.221264 0.401139 0.399160
H 2.560770 1.815635 -0.166887
H 2.565444 0.379467 -1.198522
H 3.302369 0.322203 0.416617
H 1.114904 -0.564735 0.377998
O -0.032574 -2.070681 0.110010
H -0.714840 -1.449440 -0.210058
H -0.037128 -2.800269 -0.513407
RMSD: 0.04897420880346788