14

N 1.939620 -0.080119 0.928107
H 1.668415 -0.061474 -0.049199
H 2.535619 0.719321 1.088111
H 2.513141 -0.900158 1.064126
N -1.136032 -0.033696 1.856038
H -1.387518 -0.832013 2.421372
H -0.125986 -0.051302 1.740834
H -1.361370 0.785655 2.401983
C -0.804343 -0.060522 -1.738184
O 0.626207 0.001856 -1.857923
H -1.031360 -0.038126 -0.679209
H -1.194487 -0.981236 -2.167143
H -1.275868 0.791664 -2.223271
H 0.852060 -0.027293 -2.788450
RMSD: 0.036077276442456584