11

C 1.869739 -0.707231 -0.430358
O 1.183910 -1.584696 0.415899
H 1.584797 -1.591116 1.316279
H 1.817978 0.313964 -0.044856
H 2.914286 -1.009935 -0.533820
H 1.399043 -0.732511 -1.414799
O 0.274083 2.010236 0.155069
H -0.113298 2.879731 0.343893
H -0.462091 1.370498 0.219303
O -2.019111 0.066153 0.343241
C -1.837223 -1.042487 0.236380
RMSD: 0.9119102000871815