12

N -0.317537 0.554548 2.093001
H -0.246112 -0.067378 2.885388
H -0.777985 1.392173 2.418764
H -0.937682 0.118408 1.421613
C 0.008874 -0.759423 -1.092306
O -1.318925 -0.581483 -0.583002
H 0.665898 -0.230101 -0.413691
H 0.111293 -0.338120 -2.090135
H 0.290889 -1.810024 -1.110645
H -1.920178 -1.098867 -1.120649
O -0.280597 2.530688 -1.115886
C -0.981238 2.746841 -0.245485
RMSD: 0.06080040590637226