12

N 1.522859 0.801087 -0.710851
H 1.526759 1.803623 -0.657966
H 1.941974 0.543076 -1.585901
H 0.555224 0.505132 -0.741420
C -2.084375 0.358162 0.347904
O -1.406373 -0.078657 -0.795522
H -1.586318 1.252839 0.725290
H -2.057881 -0.410310 1.123869
H -3.120293 0.610131 0.110200
H -1.838356 -0.877490 -1.176429
O -0.052289 -1.093175 2.502270
C 0.895768 -0.957155 1.905523
RMSD: 0.521687245949845