9

N 0.224166 1.952948 0.061690
H -0.586724 1.899778 0.683738
H 0.826663 2.680142 0.456219
H -0.133487 2.347205 -0.812556
C 1.555367 -0.704823 -0.091847
O 0.540501 -1.236350 0.184682
O 2.591368 -0.217720 -0.368826
O -2.563595 0.029109 0.276521
C -2.785934 -0.884443 -0.382494
RMSD: 0.39650171089567304