12

N -0.782227 2.237969 -0.097816
H -0.140450 3.034211 -0.099852
H -1.647663 2.581320 0.324856
H -0.395351 1.561360 0.567618
C 0.536233 -1.003183 -0.362139
O 0.238202 -0.513232 0.949656
H 0.017525 -0.338359 -1.066134
H 0.170221 -2.035798 -0.504312
H 1.619709 -0.968569 -0.575291
H 0.743323 -1.045452 1.579538
O -2.917481 -0.981505 -0.165257
C -3.145341 -0.071499 0.496100
RMSD: 0.11517313257461123