9

C -2.633899 0.465897 0.015677
O -1.737823 1.231860 -0.059712
O -3.558328 -0.254306 0.093302
O 1.231204 0.449748 0.187794
H 0.506936 1.090184 0.112361
H 1.912756 0.805042 -0.398815
O -0.738033 -1.602038 -0.098176
H 0.114252 -1.140982 0.001905
H -0.590665 -2.458507 0.323025
RMSD: 0.06236698364564569