12

N 0.097682 2.155938 0.239702
H -0.468350 2.993158 0.383616
H 0.948316 2.464285 -0.232796
H -0.408302 1.570298 -0.429418
C -1.557848 -0.869845 0.579798
O -1.356515 -0.384874 -0.762571
H -1.000788 -0.188140 1.235535
H -1.164039 -1.893107 0.701884
H -2.624963 -0.850510 0.858907
H -1.856945 -0.951304 -1.364021
O 1.731057 -1.213612 0.295242
C 1.957395 -0.375024 -0.458909
RMSD: 0.04630369848865324