11

C 1.972595 -0.766282 0.350098
O 1.125038 -0.249124 -0.689924
H 1.346698 -0.851647 1.232316
H 2.798102 -0.086570 0.560723
H 2.357888 -1.750559 0.085096
H 1.645305 -0.161349 -1.498606
O -0.068974 2.151681 0.318264
H -1.005381 2.179256 0.095613
H 0.271241 1.343595 -0.100505
O -2.156085 -0.473292 -0.148187
C -1.674314 -1.363103 0.401344
RMSD: 0.1671264059322158