12

C 0.759558 -1.089060 -0.007842
O -2.813901 -0.437034 0.358149
H -3.444755 -0.806524 -0.278369
H -3.339091 -0.181687 1.131774
H 0.641765 -1.546240 0.977479
H -0.921280 -0.052676 0.067661
O 0.044971 0.111966 -0.078152
H 0.418598 -1.783715 -0.778678
H 1.818110 -0.880134 -0.171396
O 2.003010 2.263564 -0.054544
H 1.631743 2.935733 -0.649803
H 1.348980 1.537175 -0.044666
RMSD: 1.5359108393256045