11

N 1.055664 -0.443187 -0.007954
H 1.613854 -0.664534 -0.824397
H 1.612623 -0.678675 0.805370
H 0.247267 -1.055974 -0.013883
N -1.275557 1.721750 0.012544
H -1.316068 2.319230 0.830582
H -0.366617 1.261752 0.007718
H -1.317590 2.333347 -0.794915
C -3.043579 -0.541995 -0.005978
O -4.022813 0.114164 0.000118
O -2.110369 -1.268846 -0.012650
RMSD: 0.034341066752818755