11

C 0.967599 1.257690 -0.777277
O -0.142221 0.555419 -0.208344
H 1.839038 0.617747 -0.645750
H 1.145853 2.206935 -0.263422
H 0.816296 1.437376 -1.845584
H -0.918050 1.115999 -0.288667
O 0.781390 -0.532007 2.266289
H 0.410704 -1.411273 2.362074
H 0.368758 -0.201044 1.456325
O 0.361364 -2.730804 -0.287329
C 0.981382 -2.343433 -1.162082
RMSD: 0.20343264854282542