12

N 0.388178 1.745156 0.392113
H 0.676566 1.838816 1.358385
H 0.496611 2.664812 -0.018130
H -0.606847 1.544530 0.406039
C -1.773660 -0.925861 0.286716
O -2.359842 0.330837 -0.061719
H -0.699562 -0.934747 0.101418
H -2.242841 -1.752093 -0.250928
H -1.951017 -1.060751 1.349806
H -2.202508 0.458793 -1.004434
O 1.894711 -1.138852 -0.847672
C 2.676911 -0.313377 -0.664626
RMSD: 0.798934459879915