12

N -0.154111 2.182420 0.216624
H -0.812597 2.945762 0.302513
H 0.660739 2.564894 -0.245119
H -0.561500 1.521411 -0.436064
C -1.443767 -0.946173 0.574936
O -1.231517 -0.498235 -0.761301
H -1.021620 -0.182954 1.220312
H -0.937383 -1.892000 0.770142
H -2.505018 -1.054826 0.801207
H -1.616332 -1.146128 -1.355587
O 1.892415 -0.930083 0.367141
C 2.027390 -0.106824 -0.407837
RMSD: 0.054719476602169075