9

C -1.728385 -0.826131 0.046626
O -0.581053 -1.062104 0.059028
O -2.880497 -0.634470 0.040591
C 2.204607 -0.040287 0.028157
O 1.831370 1.042033 0.280877
O 2.595106 -1.111211 -0.221559
O -1.057911 1.839289 -0.231072
H -0.140757 1.977895 0.022022
H -1.490716 2.670190 -0.023399
RMSD: 0.16316912618270893