9

C -2.487848 0.596197 -0.089061
O -1.528098 1.329831 -0.074001
O -3.511973 -0.028680 -0.110758
O 1.187416 0.258858 0.083368
H 0.547888 0.998642 0.028582
H 2.111350 0.565237 0.111482
O -0.893286 -1.494758 0.054593
H 0.039719 -1.172749 0.084125
H -0.958767 -2.465679 0.089029
RMSD: 0.20340049380460667