12

C 1.630030 0.122414 -0.327875
O 0.709472 -0.028839 0.767142
H 2.318599 -0.731632 -0.286516
H 2.211413 1.053408 -0.233411
H 1.105077 0.117294 -1.297349
H 0.064762 0.702361 0.703369
O -1.509973 -1.432757 -0.087458
H -0.640835 -1.197918 0.306049
H -1.829047 -2.184049 0.426834
O -1.620400 1.354243 0.057290
H -2.335662 1.857714 0.464064
H -1.955728 0.439128 -0.020523
RMSD: 0.11952294978060438