9

C -1.714687 -0.836345 0.000063
O -0.553729 -0.995865 0.000330
O -2.876086 -0.716908 -0.000188
C 2.189048 -0.039939 0.000018
O 1.807476 1.068796 0.000027
O 2.588564 -1.136097 -0.000194
O -1.126734 1.855249 -0.000215
H -0.163408 1.879333 0.001010
H -1.398681 2.776980 0.000421
RMSD: 0.12202973560985815