9

C 1.442299 -0.827557 -0.031332
O 0.282445 -1.055466 -0.050743
O 2.607583 -0.651712 -0.016574
C -2.489433 -0.029693 -0.013786
O -2.120653 1.080267 -0.192196
O -2.880424 -1.126475 0.162150
O 0.807080 1.824696 0.152715
H -0.133082 1.966019 -0.015826
H 1.235949 2.675125 0.006864
RMSD: 0.12202973560985815