11

C 1.789183 -0.848351 0.482990
O 1.151120 -0.459166 -0.755409
H 0.979295 -1.001083 1.205549
H 2.458689 -0.055864 0.852268
H 2.348788 -1.788351 0.360129
H 1.842070 -0.352046 -1.423088
O 0.243841 2.028561 0.270670
H -0.484903 2.449611 -0.201117
H 0.432502 1.220176 -0.240614
O -2.394492 -0.351358 -0.373910
C -1.753979 -0.869524 0.428762
RMSD: 0.09705606054703826