10

N -1.596327 -0.589200 0.005479
H -2.169824 -0.793633 -0.806490
H -0.767318 -1.179397 -0.050102
H -2.124955 -0.891844 0.817235
O 0.230992 1.555789 -0.056107
H 0.094154 2.271982 0.566871
H -0.578435 1.007200 0.003200
O 1.433652 -0.968944 0.056347
H 2.253018 -1.108541 -0.421459
H 1.298713 -0.007930 0.032905
RMSD: 0.03618532859051599