14

N 1.100846 -1.839952 -0.011027
H 0.117435 -1.544334 -0.032846
H 1.199625 -2.474638 -0.807405
H 1.174552 -2.446789 0.809377
N 1.911037 1.225540 -0.091546
H 2.558643 1.451517 0.668265
H 1.825534 0.199154 -0.062649
H 2.450331 1.414154 -0.940904
C -1.586860 0.862046 0.105730
O -1.689412 -0.543738 -0.129824
H -0.523176 1.127925 0.017730
H -1.937698 1.138069 1.118216
H -2.165163 1.445068 -0.635611
H -2.617596 -0.781467 -0.010313
RMSD: 0.11566484289165768