9

C 0.076479 -0.182652 1.894759
O 0.831233 -0.011471 0.999949
O -0.610437 -0.362174 2.831617
O -0.074160 -0.321060 -1.868916
H 0.519084 -0.308298 -1.106979
H 0.057349 0.538495 -2.282626
O -2.025479 0.024650 0.168223
H -1.560761 -0.138870 -0.667729
H -2.706909 -0.651720 0.209062
RMSD: 0.13825256260803886