10

N -0.160697 -1.452354 -0.474570
H -0.946396 -2.018435 -0.765212
H -0.171973 -0.604342 -1.035624
H 0.674534 -1.964424 -0.724475
O -0.361770 0.372993 1.648317
H 0.379191 0.326506 2.255704
H -0.283917 -0.434315 1.096281
O -0.090038 1.544504 -0.876146
H -0.797724 2.166693 -1.052414
H -0.167539 1.358656 0.076017
RMSD: 0.09240195543804831