9

C 1.328965 0.447705 -0.023042
O 0.470291 1.228854 0.143554
O 2.222683 -0.279933 -0.194592
O -2.440175 0.462553 -0.136222
H -1.657753 1.021914 -0.080031
H -2.963114 0.712402 0.629204
O -0.529543 -1.598211 0.202681
H -1.342530 -1.090610 0.064112
H -0.582423 -2.317776 -0.428304
RMSD: 0.08920317493528052