12

C -2.115160 -0.060330 0.317752
O -0.921214 -0.193857 -0.451289
H -2.666149 -1.008212 0.232737
H -2.755058 0.753202 -0.068046
H -1.896719 0.129070 1.384145
H -0.413018 0.635439 -0.360742
O 1.582847 -1.287089 0.095281
H 0.627992 -1.216063 -0.113960
H 1.902061 -1.988267 -0.487531
O 1.236924 1.513643 0.112703
H 1.843281 2.128292 -0.320471
H 1.721921 0.665540 0.131037
RMSD: 0.13011880531849485