15

C -1.486517 0.818569 -1.003072
O -1.545788 0.645792 0.413618
H -1.963790 -0.017715 -1.542792
H -1.944551 1.772681 -1.320650
H -2.482629 0.609990 0.651449
H -0.420283 0.825606 -1.263790
C 1.767658 0.226056 0.991529
O 1.848169 -0.106138 -0.396576
H 1.011131 1.005850 1.187579
H 2.150967 0.685467 -0.860138
H 2.745111 0.545912 1.395208
H 1.450195 -0.691346 1.504091
O -0.351694 -1.973494 0.023800
H -0.786188 -1.186239 0.386147
H 0.407977 -1.564753 -0.415942
RMSD: 1.0404213107947444