12

N -0.173958 2.241490 0.242517
H -0.817617 3.036136 0.231512
H 0.691231 2.580378 -0.184239
H -0.558344 1.553833 -0.412962
C -1.484093 -0.998760 0.553977
O -1.186009 -0.527736 -0.764713
H -0.967807 -0.322112 1.248422
H -1.115567 -2.028173 0.711999
H -2.567861 -0.963747 0.765561
H -1.689091 -1.070637 -1.387065
O 1.969793 -0.972377 0.357809
C 2.196022 -0.071031 -0.315852
RMSD: 0.1152337673677091