11

C 1.331172 1.022851 -0.609854
O -0.026467 0.589788 -0.533315
H 1.852932 0.522053 0.203743
H 1.420604 2.104189 -0.463017
H 1.789354 0.745676 -1.564880
H -0.528604 1.101519 -1.169810
O 0.179223 -0.119680 2.211409
H 0.149924 -1.072766 2.123629
H -0.171872 0.170010 1.361957
O 0.268408 -2.581292 0.090279
C 0.347441 -2.509741 -1.043911
RMSD: 0.5333406265322973