10

N 1.219117 0.428040 0.001049
H 1.783915 0.641439 -0.820396
H 0.396869 1.037251 -0.033606
H 1.766774 0.713269 0.812265
O -0.615419 -1.712688 -0.116780
H -0.557634 -2.354568 0.601503
H 0.187963 -1.146124 -0.022845
O -1.794677 0.835162 0.059613
H -2.667410 0.982971 -0.322924
H -1.645827 -0.129272 -0.010002
RMSD: 0.02774623129881588