11

N -2.714228 0.965275 0.016769
H -3.237178 1.285939 -0.789036
H -3.221979 1.286588 0.831980
H -1.833729 1.467709 0.008303
N -0.339869 -1.119301 -0.003951
H -0.273366 -1.727975 0.803119
H -1.275638 -0.719696 0.004389
H -0.288113 -1.728793 -0.811486
C 1.401366 1.101569 -0.020989
O 2.370504 0.432878 -0.029045
O 0.489043 1.852841 -0.013499
RMSD: 0.04684795083147672