11

C -0.659488 -0.803348 -0.330770
O 0.072460 -0.415588 0.854563
H 0.085767 -0.907751 -1.128988
H -1.392032 -0.031677 -0.618184
H -1.169166 -1.768905 -0.181655
H -0.559997 -0.338802 1.581698
O 1.064406 2.077419 -0.113726
H 1.919439 2.330978 0.254035
H 0.825350 1.258520 0.357313
O 3.534625 -0.437152 0.353810
C 2.890751 -0.991088 -0.421864
RMSD: 0.04748878535506953