12

C -2.010254 0.057859 0.312629
O -0.961116 -0.078256 -0.661347
H -2.651339 -0.829358 0.217975
H -2.617335 0.958336 0.121101
H -1.605676 0.103319 1.338206
H -0.358823 0.683329 -0.553232
O 1.320552 -1.386873 0.203449
H 0.432840 -1.200664 -0.171422
H 1.681958 -2.107277 -0.326440
O 1.284726 1.408611 0.111101
H 1.964775 1.949726 -0.307203
H 1.667400 0.512614 0.186799
RMSD: 0.050902092208236084