14

N 0.084328 -1.017626 -1.823149
H 0.110994 -0.024259 -1.564803
H 0.870461 -1.160640 -2.462189
H -0.753589 -1.135958 -2.398218
N 0.219932 -1.898016 1.289832
H -0.555860 -2.509469 1.556638
H 0.175187 -1.813605 0.265456
H 1.066024 -2.436882 1.491493
C 0.081834 1.707152 0.937510
O 0.248620 1.796418 -0.486028
H 0.164979 0.644017 1.202547
H -0.910199 2.079039 1.251171
H 0.865416 2.276236 1.469235
H 0.149972 2.726149 -0.732298
RMSD: 0.10058712351598759