12

N 1.520436 0.372895 0.510169
H 2.331049 0.419526 -0.091946
H 1.822059 -0.060913 1.371973
H 0.859948 -0.262273 0.076888
C -1.616691 0.656030 -0.939045
O -1.126622 -0.666288 -0.685087
H -0.951538 1.332908 -0.415206
H -2.628996 0.785061 -0.558913
H -1.596531 0.891208 -2.002153
H -1.667665 -1.287441 -1.175910
O -1.748490 0.492946 2.343290
C -0.900260 -0.216397 2.612907
RMSD: 0.05698819144955205