11

C 1.783596 -0.909834 0.453599
O 1.155782 -0.385950 -0.720693
H 1.074961 -0.780806 1.263892
H 2.696426 -0.366283 0.693210
H 2.005216 -1.970069 0.341908
H 1.771936 -0.472547 -1.453203
O 0.277546 2.146870 0.231097
H -0.504314 2.463925 -0.225868
H 0.516283 1.332435 -0.237131
O -2.357287 -0.231265 -0.259983
C -1.808029 -0.853869 0.519404
RMSD: 0.09577673644471359