15

C 1.635138 0.658155 1.007291
O 1.802164 -0.044519 -0.289741
H 2.132765 0.103413 1.807409
H 2.031659 1.675792 0.942496
H 2.734313 -0.064890 -0.572051
H 0.561230 0.681077 1.178026
C -1.501386 0.745530 -1.110688
O -1.750710 0.228112 0.258276
H -1.756912 1.807812 -1.168250
H -2.674599 0.367069 0.534215
H -2.075690 0.173138 -1.844236
H -0.435590 0.603695 -1.274782
O -0.126538 -2.162058 0.116477
H 0.660851 -1.652389 -0.159391
H -0.836927 -1.523698 0.325412
RMSD: 0.9239604935786868