14

N -0.764346 1.754667 0.022109
H 0.211055 1.455470 0.018284
H -1.015456 2.279554 -0.808273
H -1.015188 2.259060 0.865177
N -1.681112 -1.279803 -0.015179
H -2.140293 -1.623507 0.819744
H -1.515951 -0.271964 -0.002733
H -2.141265 -1.602617 -0.857867
C 1.816779 -0.997338 -0.011927
O 1.901930 0.485976 0.006235
H 0.751309 -1.219703 -0.014803
H 2.293280 -1.414381 0.880885
H 2.293540 -1.392392 -0.914548
H 2.823819 0.799536 0.010089
RMSD: 0.08042499307896624