9

N -0.429405 1.973749 0.000220
H 0.564263 1.788545 0.000515
H -0.624278 2.544352 -0.811077
H -0.624770 2.546230 0.810070
C -1.556532 -0.769258 0.000203
O -0.462543 -1.185025 0.000853
O -2.664761 -0.398362 -0.000367
O 2.499275 0.201671 0.002733
C 2.967077 -0.836057 0.003977
RMSD: 0.046503076104376574