11

N 1.067841 -0.427867 0.001145
H 1.593662 -0.737787 -0.808540
H 1.591225 -0.729909 0.815379
H 0.200410 -0.955364 0.002331
N -1.249886 1.693950 -0.005609
H -1.295904 2.308341 0.800280
H -0.319043 1.278460 -0.005558
H -1.298138 2.303310 -0.815182
C -3.055185 -0.522654 0.004008
O -3.999464 0.162906 0.001993
O -2.158703 -1.276354 0.006307
RMSD: 0.038119493049785236