10

N -0.750797 -1.836048 0.170710
H -0.872020 -0.835702 0.093957
H 0.234408 -2.017505 0.127933
H -1.068387 -2.109558 1.081833
O -1.062116 1.254841 -0.079499
H -1.368402 1.771345 0.681630
H -1.714572 1.408406 -0.779994
O 1.792159 0.494525 -0.072989
H 2.032962 0.409622 -1.009917
H 0.850434 0.755556 -0.065786
RMSD: 0.7011499251743871