12

N -0.397000 -1.837534 0.189812
H 0.371760 -2.496706 0.211873
H -1.197609 -2.314890 -0.206336
H -0.146046 -1.081624 -0.440101
C 0.279694 1.537090 0.599788
O 0.088041 1.031829 -0.730274
H -0.073046 0.755867 1.265433
H -0.299820 2.446733 0.763460
H 1.333751 1.733110 0.801957
H 0.450576 1.666678 -1.360029
O -3.052728 0.956074 0.337616
C -3.060875 0.060636 -0.386230
RMSD: 0.08297989360230064