10

N -1.599601 -0.585437 -0.001915
H -2.154271 -0.779840 -0.823870
H -0.774976 -1.176207 -0.039785
H -2.143667 -0.871437 0.799951
O 0.215924 1.573738 -0.093945
H 0.145650 2.215478 0.614227
H -0.576429 1.002090 -0.013695
O 1.437224 -0.965402 0.080398
H 2.254512 -1.106747 -0.398555
H 1.269304 -0.010754 0.025067
RMSD: 0.012817256673397675