14

N 1.072838 1.743671 -0.000395
H 0.090305 1.480250 -0.000406
H 1.223567 2.329196 0.811733
H 1.222978 2.331916 -0.810659
N 1.964939 -1.330314 0.000313
H 2.520641 -1.572995 -0.810712
H 1.861071 -0.315849 -0.000385
H 2.523745 -1.571600 0.809619
C -1.608761 -0.976547 -0.000306
O -1.714422 0.452862 0.000689
H -0.548384 -1.213946 0.000932
H -2.070578 -1.404534 -0.890911
H -2.073046 -1.405941 0.888337
H -2.646794 0.686388 -0.000656
RMSD: 0.020824465485092727