9

C 1.335577 0.399752 0.065384
O 0.458218 1.224938 0.067827
O 2.285455 -0.326637 0.062881
O -2.376336 0.444754 -0.064060
H -1.662073 1.106526 -0.021860
H -3.206677 0.781212 0.306104
O -0.472909 -1.508750 0.006761
H -1.356963 -1.083276 -0.031238
H -0.497891 -2.451621 -0.214439
RMSD: 0.12043169948626856