9

C 1.354608 0.465696 0.003622
O 0.461899 1.221779 0.094054
O 2.276009 -0.242768 -0.087113
O -2.425710 0.469716 -0.155848
H -1.653679 1.039040 -0.046816
H -3.045183 0.762232 0.518866
O -0.494976 -1.579496 0.120983
H -1.334444 -1.106402 0.006266
H -0.632124 -2.442898 -0.276654
RMSD: 0.16651301559457127