11

C 1.662766 -0.785816 0.537690
O 1.137951 -0.434634 -0.741860
H 1.107669 -1.623700 0.997792
H 1.545464 0.110394 1.161283
H 2.734683 -1.048950 0.489479
H 1.245874 -1.199062 -1.322572
O 0.543044 2.225196 0.057175
H -0.381631 2.022303 0.243563
H 0.781895 1.488956 -0.526681
O -1.989029 0.150181 0.013597
C -1.776572 -0.932262 -0.303235
RMSD: 0.7189662393364467