9

N 1.097519 0.527218 -0.424366
H 0.780548 0.448319 0.532696
H 1.489087 -0.357474 -0.688973
H 1.838585 1.203263 -0.441774
C -1.543761 1.110179 -1.394071
O -1.842661 1.337384 -0.298270
O -1.266218 0.884876 -2.495937
O 0.107360 0.273163 2.511924
C -0.992132 0.438916 2.705900
RMSD: 0.31143831545716527