9

C -1.710303 -0.840339 0.000298
O -0.542672 -1.020882 0.001114
O -2.879367 -0.699470 -0.000500
C 2.205462 -0.057187 0.000923
O 1.834304 1.065127 0.002585
O 2.594975 -1.167654 -0.000710
O -1.127863 1.861644 -0.001378
H -0.164281 1.945671 0.000471
H -1.458492 2.768293 -0.001530
RMSD: 0.035809517655279205