9

N -0.374812 1.936378 -0.013710
H 0.436430 1.953951 -0.637299
H -1.020231 2.640327 -0.381611
H -0.039224 2.319390 0.874175
C -1.545598 -0.799630 0.044500
O -0.502329 -1.259217 -0.254477
O -2.607251 -0.385541 0.342320
O 2.522281 0.191423 -0.295792
C 2.799060 -0.731237 0.329021
RMSD: 0.39706711619326085