9

C -1.726347 -0.821567 0.023642
O -0.566361 -1.049368 0.034472
O -2.891626 -0.645513 0.016237
C 2.214108 -0.043815 0.011050
O 1.850510 1.075352 0.133443
O 2.600106 -1.149810 -0.109549
O -1.088272 1.830148 -0.113269
H -0.139696 1.966626 0.003359
H -1.500659 2.693152 0.001887
RMSD: 0.09658216069214937