9

C -2.598071 0.462053 0.023350
O -1.712110 1.224300 -0.075303
O -3.511861 -0.254559 0.123237
O 1.197226 0.470504 0.216336
H 0.431931 1.045373 0.101164
H 1.854126 0.811702 -0.395650
O -0.706754 -1.596737 -0.119398
H 0.128044 -1.122594 0.010868
H -0.576131 -2.453143 0.292757
RMSD: 0.030585257133027538