12

C 1.670887 0.125125 0.338524
O 0.617245 0.198507 -0.613094
H 2.263346 1.048777 0.254598
H 2.341041 -0.732053 0.143072
H 1.296007 0.044472 1.375860
H 0.061059 -0.595874 -0.464465
O -1.818572 1.237638 0.184900
H -0.883765 1.156498 -0.100927
H -2.242349 1.620179 -0.594454
O -1.391613 -1.500116 0.160163
H -1.958328 -1.909410 -0.506448
H -1.807249 -0.622377 0.293886
RMSD: 0.1442350583124426