9

C -1.723673 -0.802007 -0.023502
O -0.598529 -1.046708 0.186349
O -2.853738 -0.610084 -0.241590
C 2.201993 -0.029864 0.024682
O 1.819932 1.061286 -0.164300
O 2.603931 -1.108254 0.209026
O -1.113376 1.889060 0.233223
H -0.159683 1.929549 0.138604
H -1.425094 2.572226 -0.361219
RMSD: 0.2021703666223418