11

C -0.603141 0.937404 0.248470
O 0.526531 0.787989 -0.616389
H -0.211970 1.089475 1.249297
H -1.221277 0.038734 0.247797
H -1.200401 1.805907 -0.033621
H 0.199895 0.701118 -1.515446
O 0.404117 -1.902567 0.204126
H 1.020065 -2.638229 0.187577
H 0.881348 -1.111743 -0.061276
O 3.203733 -0.388712 0.276437
C 3.613214 0.653231 0.419260
RMSD: 0.4918695326470077